This is file5.txt created in newfeature branch
<<<<<<< HEAD
=======
New line.
>>>>>>> newfeature
